java/SFINA/experiments/experiment-Case30RateReduction/output/time_23/iteration_2/flow/links.txt
id,current,real_power_from,reactive_power_from,real_power_to,reactive_power_to,resistance,reactance,susceptance,rateA,rateB,rateC,ratio,angle,angmin,angmax
1,137.74670458218384,30.188639402675044,-11.227553386269307,-29.98744355390153,8.831140932589589,0.02,0.06,0.03,130.0,130.0,73.90258883137155,0.0,0.0,-360.0,360.0
2,113.774292980104,25.708612373539186,6.841980271261594,-25.347397671165293,-7.416644842338802,0.05,0.19,0.02,130.0,130.0,73.90258883137155,0.0,0.0,-360.0,360.0
3,109.53510227181535,23.766586739962722,9.546551697367692,-23.360938501178683,-10.335034102247292,0.06,0.17,0.02,65.0,65.0,36.95129441568577,0.0,0.0,-360.0,360.0
4,104.46692641857412,22.94739757606443,6.216644879245706,-22.887728896638286,-5.977970161541138,0.01,0.04,0.0,130.0,130.0,73.90258883137155,0.0,0.0,-360.0,360.0
5,72.1724156214751,15.953630938268473,5.5023583932943865,-15.805231435873806,-6.86805871497462,0.05,0.2,0.02,130.0,130.0,73.90258883137155,0.0,0.0,-360.0,360.0
6,114.59161810333993,25.05788681986756,9.489615226243378,-24.615128988184374,-10.096166199185616,0.06,0.18,0.02,65.0,65.0,36.95129441568577,0.0,0.0,-360.0,360.0
7,52.27969732899211,11.809620345016372,0.8226168441231205,-11.794676755795377,-0.7628424872391438,0.01,0.04,0.0,90.0,90.0,51.16333072941109,0.0,0.0,-360.0,360.0
8,75.56769652289677,15.805231430380665,7.050325400838068,-15.64547619702312,-7.609542573188337,0.05,0.12,0.01,70.0,70.0,39.79370167843083,0.0,0.0,-360.0,360.0
9,33.47543122671803,7.1736979801086855,2.4111957856551673,-7.154523794295338,-3.290457424261195,0.03,0.08,0.01,130.0,130.0,73.90258883137155,0.0,0.0,-360.0,360.0
10,153.04507768000303,24.82230991469614,24.42809638328978,-24.694245778648284,-23.915839839098336,0.01,0.04,0.0,32.0,32.0,18.191406481568382,0.0,0.0,-360.0,360.0
11,85.66008595921829,18.60479566743184,5.375881019208782,-18.60479566743184,-4.5333903528412,0.0,0.21,0.0,65.0,65.0,36.95129441568577,0.0,0.0,-360.0,360.0
12,48.948620459506074,10.63131177911976,3.071932045538982,-10.631311779119763,-2.338334733262936,0.0,0.56,0.0,32.0,32.0,18.191406481568382,0.0,0.0,-360.0,360.0
13,0.0,0.0,-0.0,0.0,-0.0,0.0,0.21,0.0,65.0,65.0,36.95129441568577,0.0,0.0,-360.0,360.0
14,85.66008550806862,18.604795519671594,4.533390533233062,-18.604795519671594,-4.0920859031175665,0.0,0.11,0.0,65.0,65.0,36.95129441568577,0.0,0.0,-360.0,360.0
15,133.45885302295872,26.83904532618443,13.890388122223628,-26.83904532618443,-11.358427682149921,0.0,0.26,0.0,65.0,65.0,36.95129441568577,0.0,0.0,-360.0,360.0
16,165.6981874904513,-36.99999965183321,-9.394074023702363,36.9999996518332,11.49568507305054,0.0,0.14,0.0,65.0,65.0,36.95129441568577,0.0,0.0,-360.0,360.0
17,26.221554782499215,5.430709746264759,1.8151750409037513,-5.385598282815524,-1.7174335367637454,0.12,0.26,0.0,32.0,32.0,18.191406481568382,0.0,0.0,-360.0,360.0
18,43.18134934805433,9.08751763445361,2.51669276305642,-9.01615362367206,-2.384159600176399,0.07,0.13,0.0,32.0,32.0,18.191406481568382,0.0,0.0,-360.0,360.0
19,5.57174589497819,1.1208199215026162,-0.4734385785389147,-1.1192923065359177,0.47683327846491047,0.09,0.2,0.0,32.0,32.0,18.191406481568382,0.0,0.0,-360.0,360.0
20,3.8168181251737083,-0.8144015360376634,0.11743348274585062,0.816153860018413,-0.11584046094516899,0.22,0.2,0.0,16.0,16.0,9.095703240784191,0.0,0.0,-360.0,360.0
21,15.086306607309934,-2.380707872879441,-2.276833038771352,2.3906629502213974,2.3004763474584986,0.08,0.19,0.0,16.0,16.0,9.095703240784191,0.0,0.0,-360.0,360.0
22,52.8339639116469,12.10216914077223,-0.8175563799251818,-11.934285697761874,1.153323265945892,0.11,0.22,0.0,16.0,16.0,9.095703240784191,0.0,0.0,-360.0,360.0
23,15.563770701291014,-3.199999984351102,-0.900000003953153,3.207946370942804,0.9172171749018401,0.06,0.13,0.0,16.0,16.0,9.095703240784191,0.0,0.0,-360.0,360.0
24,62.60622602122162,-12.70794632654301,-4.317217183203893,12.772236573792425,4.467227760119193,0.03,0.07,0.0,32.0,32.0,18.191406481568382,0.0,0.0,-360.0,360.0
25,73.28456376500851,15.236511712746262,5.78386975596179,-14.972236570559216,-5.167227757525351,0.09,0.21,0.0,32.0,32.0,18.191406481568382,0.0,0.0,-360.0,360.0
26,63.556891498785745,11.456920577545745,8.27716302101311,-11.390663032154993,-8.100476233304436,0.03,0.08,0.0,32.0,32.0,18.191406481568382,0.0,0.0,-360.0,360.0
27,94.82635152487097,17.64749140709461,11.544147639661055,-17.499999521128554,-11.199999905740249,0.03,0.07,0.0,32.0,32.0,18.191406481568382,0.0,0.0,-360.0,360.0
28,133.8012383135337,-20.904816406948374,-21.174759257197575,21.590000224368787,22.643010294527027,0.07,0.15,0.0,32.0,32.0,18.191406481568382,0.0,0.0,-360.0,360.0
29,121.68976117440384,-18.48338399433123,-21.40225595857321,18.56434891025781,21.56418579042638,0.01,0.02,0.0,32.0,32.0,18.191406481568382,0.0,0.0,-360.0,360.0
30,68.65775063993424,-15.742291455745322,-0.8002164561615097,16.000023212321814,1.3156799693144945,0.1,0.2,0.0,16.0,16.0,9.095703240784191,0.0,0.0,-360.0,360.0
31,67.5874570895075,12.588176974003765,9.55493166516375,-12.288466271618018,-9.105365611585132,0.12,0.18,0.0,16.0,16.0,9.095703240784191,0.0,0.0,-360.0,360.0
32,41.22982791490289,9.446112990187473,1.9268916264243339,-9.325288439635086,-1.6759483291232284,0.13,0.27,0.0,16.0,16.0,9.095703240784191,0.0,0.0,-360.0,360.0
33,19.183939245014024,3.5885333801860293,2.4428639811682116,-3.5503021763547458,-2.376462416619142,0.19,0.33,0.0,16.0,16.0,9.095703240784191,0.0,0.0,-360.0,360.0
34,19.18393967568615,3.5503022374815143,2.3764624977215703,-3.499998019655416,-2.3000000866259023,0.25,0.38,0.0,16.0,16.0,9.095703240784191,0.0,0.0,-360.0,360.0
35,58.94055789863492,-13.404788640806801,2.5452469165117577,13.613723046215512,-2.146372142549676,0.11,0.21,0.0,16.0,16.0,9.095703240784191,0.0,0.0,-360.0,360.0
36,0.0,0.0,0.0,0.0,0.0,0.0,0.4,0.0,65.0,65.0,36.95129441568577,0.0,0.0,-360.0,360.0
37,27.36826322656499,6.17388200329721,1.6840278133304396,-6.083785912230454,-1.5120261849302672,0.22,0.42,0.0,16.0,16.0,9.095703240784191,0.0,0.0,-360.0,360.0
38,31.29068423527844,7.1223949504872435,1.6745629326654436,-6.951090403779455,-1.3533669075883437,0.32,0.6,0.0,16.0,16.0,9.095703240784191,0.0,0.0,-360.0,360.0
39,16.302915792211763,3.6837859122304057,0.6120261849302001,-3.648909596220512,-0.54663309241165,0.24,0.45,0.0,16.0,16.0,9.095703240784191,0.0,0.0,-360.0,360.0
40,209.9550999365839,-29.999978588637404,-29.99998487952773,31.41050864219881,33.04479985415419,0.06,0.2,0.02,32.0,32.0,18.191406481568382,0.0,0.0,-360.0,360.0
41,145.5880367741041,24.798729947200037,21.9514292406114,-24.562515429162936,-22.171071143229966,0.02,0.06,0.01,32.0,32.0,18.191406481568382,0.0,0.0,-360.0,360.0
